Version 4
SHEET 1 2472 1840
WIRE -1360 272 -1360 256
WIRE -688 272 -688 256
WIRE -368 272 -368 256
WIRE -1360 480 -1360 352
WIRE -1008 480 -1008 352
WIRE -688 480 -688 352
WIRE -368 480 -368 352
WIRE -1392 528 -1424 528
WIRE -1040 528 -1072 528
WIRE -720 528 -752 528
WIRE -400 528 -432 528
WIRE -1424 624 -1424 592
WIRE -1072 624 -1072 592
WIRE -752 624 -752 592
WIRE -432 624 -432 592
WIRE -1328 640 -1376 640
WIRE -976 640 -1024 640
WIRE -656 640 -704 640
WIRE -336 640 -384 640
WIRE -1376 720 -1376 688
WIRE -1328 720 -1376 720
WIRE -1024 720 -1024 688
WIRE -976 720 -1024 720
WIRE -704 720 -704 688
WIRE -656 720 -704 720
WIRE -384 720 -384 688
WIRE -336 720 -384 720
WIRE -1328 736 -1328 720
WIRE -976 736 -976 720
WIRE -656 736 -656 720
WIRE -336 736 -336 720
WIRE -1424 784 -1424 704
WIRE -1072 784 -1072 704
WIRE -1072 784 -1424 784
WIRE -752 784 -752 704
WIRE -752 784 -1072 784
WIRE -432 784 -432 704
WIRE -432 784 -752 784
WIRE -752 912 -752 864
FLAG -752 912 0
FLAG -1360 256 0
FLAG -688 256 0
FLAG -368 256 0
FLAG -1392 528 a1
FLAG -400 528 s1
FLAG -1040 528 b1
FLAG -720 528 c
FLAG -1008 272 0
FLAG -336 736 0
FLAG -656 736 0
FLAG -1328 736 0
FLAG -976 736 0
SYMBOL res -768 768 R0
SYMATTR InstName R1
SYMATTR Value {R_g}
SYMBOL voltage -1360 368 R180
WINDOW 3 24 -12 Left 2
WINDOW 123 0 0 Left 2
WINDOW 39 0 0 Left 2
SYMATTR Value PWL file=a.csv
SYMATTR InstName V1
SYMBOL voltage -1008 368 R180
WINDOW 3 24 -12 Left 2
WINDOW 123 0 0 Left 2
WINDOW 39 0 0 Left 2
SYMATTR Value PWL file=b.csv
SYMATTR InstName V2
SYMBOL voltage -688 368 R180
WINDOW 3 24 -12 Left 2
WINDOW 123 0 0 Left 2
WINDOW 39 0 0 Left 2
SYMATTR Value PWL file=c.csv
SYMATTR InstName V3
SYMBOL voltage -368 368 R180
WINDOW 3 24 -12 Left 2
WINDOW 123 0 0 Left 2
WINDOW 39 0 0 Left 2
SYMATTR Value PWL file=s1.csv
SYMATTR InstName V4
SYMBOL VTEAM_knowm -1472 480 R0
WINDOW 39 -39 58 Bottom 2
SYMATTR SpiceLine w_init=3n
SYMATTR InstName X1
SYMBOL VTEAM_knowm -1120 480 R0
WINDOW 39 -44 55 Bottom 2
SYMATTR SpiceLine w_init=0n
SYMATTR InstName X2
SYMBOL VTEAM_knowm -800 480 R0
WINDOW 39 -44 53 Bottom 2
SYMATTR SpiceLine w_init=0n
SYMATTR InstName X3
SYMBOL VTEAM_knowm -480 480 R0
WINDOW 39 144 89 Bottom 2
SYMATTR SpiceLine w_init=3n
SYMATTR InstName X4
SYMBOL sw -1424 720 R180
WINDOW 0 53 37 Left 2
SYMATTR InstName S6
SYMATTR Value MYSW
SYMBOL sw -1072 720 R180
WINDOW 0 53 40 Left 2
SYMATTR InstName S7
SYMATTR Value MYSW
SYMBOL sw -752 720 R180
WINDOW 3 35 107 Left 2
SYMATTR Value MYSW
SYMATTR InstName S8
SYMBOL sw -432 720 R180
SYMATTR InstName S9
SYMATTR Value MYSW
SYMBOL voltage -1328 624 R0
WINDOW 3 -84 142 Left 2
WINDOW 123 0 0 Left 0
WINDOW 39 0 0 Left 0
SYMATTR Value PWL file=a_sw.csv
SYMATTR InstName V10
SYMBOL voltage -976 624 R0
WINDOW 3 -85 144 Left 2
WINDOW 123 0 0 Left 0
WINDOW 39 0 0 Left 0
SYMATTR Value PWL file=b_sw.csv
SYMATTR InstName V12
SYMBOL voltage -656 624 R0
WINDOW 3 -81 143 Left 2
WINDOW 123 0 0 Left 0
WINDOW 39 0 0 Left 0
SYMATTR Value PWL file=c_sw.csv
SYMATTR InstName V13
SYMBOL voltage -336 624 R0
WINDOW 3 -84 144 Left 2
WINDOW 123 0 0 Left 0
WINDOW 39 0 0 Left 0
SYMATTR Value PWL file=s1_sw.csv
SYMATTR InstName V14
TEXT -1440 920 Left 2 !.tran 240u
TEXT -1440 840 Left 2 !.model MYSW SW(Ron=1n Roff=1000meg Vt=.5)
TEXT -1440 880 Left 2 !.param R_g=40k
