Version 4
SHEET 1 1564 680
WIRE 336 64 112 64
WIRE 336 80 336 64
WIRE 320 128 272 128
WIRE 112 144 112 64
WIRE 272 224 272 192
WIRE 272 224 112 224
FLAG 272 224 0
SYMBOL voltage 112 128 R0
WINDOW 3 -243 201 Left 2
WINDOW 123 0 0 Left 0
WINDOW 39 0 0 Left 0
SYMATTR Value PWL(0 0 0.001m 0 0.5m 0 0.5001m -0.8v 0.6001m -0.8v 0.6002m 0v 2m 0v 2.0001m 0.9v 2.1001m 0.9v 2.1002m 0v 3 0v)
SYMATTR InstName V1
SYMBOL VTEAM_knowm 224 80 R0
SYMATTR InstName X1
SYMATTR SpiceLine w_init =3n
TEXT -136 352 Left 2 !.tran 3m
