Version 4
SHEET 1 2472 1840
WIRE -2896 144 -2896 128
WIRE -2544 144 -2544 128
WIRE -2192 144 -2192 128
WIRE -1840 144 -1840 128
WIRE -1360 144 -1360 128
WIRE -32 144 -32 128
WIRE -1008 160 -1008 144
WIRE -688 160 -688 144
WIRE -32 464 -32 224
WIRE -2896 480 -2896 224
WIRE -2544 480 -2544 224
WIRE -2192 480 -2192 224
WIRE -1840 480 -1840 224
WIRE -1360 480 -1360 224
WIRE -1008 480 -1008 240
WIRE -688 480 -688 240
WIRE -368 480 -368 208
WIRE -64 512 -96 512
WIRE -2928 528 -2960 528
WIRE -2576 528 -2608 528
WIRE -2224 528 -2256 528
WIRE -1872 528 -1904 528
WIRE -1392 528 -1424 528
WIRE -1040 528 -1072 528
WIRE -720 528 -752 528
WIRE -400 528 -432 528
WIRE -2960 624 -2960 592
WIRE -2608 624 -2608 592
WIRE -2256 624 -2256 592
WIRE -1904 624 -1904 592
WIRE -1424 624 -1424 592
WIRE -1072 624 -1072 592
WIRE -752 624 -752 592
WIRE -432 624 -432 592
WIRE -2864 640 -2912 640
WIRE -2512 640 -2560 640
WIRE -2160 640 -2208 640
WIRE -1808 640 -1856 640
WIRE -1328 640 -1376 640
WIRE -976 640 -1024 640
WIRE -656 640 -704 640
WIRE -336 640 -384 640
WIRE -96 640 -96 576
WIRE 0 656 -48 656
WIRE -2912 720 -2912 688
WIRE -2864 720 -2912 720
WIRE -2560 720 -2560 688
WIRE -2512 720 -2560 720
WIRE -2208 720 -2208 688
WIRE -2160 720 -2208 720
WIRE -1856 720 -1856 688
WIRE -1808 720 -1856 720
WIRE -1376 720 -1376 688
WIRE -1328 720 -1376 720
WIRE -1024 720 -1024 688
WIRE -976 720 -1024 720
WIRE -704 720 -704 688
WIRE -656 720 -704 720
WIRE -384 720 -384 688
WIRE -336 720 -384 720
WIRE -2864 736 -2864 720
WIRE -2512 736 -2512 720
WIRE -2160 736 -2160 720
WIRE -1808 736 -1808 720
WIRE -1328 736 -1328 720
WIRE -976 736 -976 720
WIRE -656 736 -656 720
WIRE -336 736 -336 720
WIRE -48 736 -48 704
WIRE 0 736 -48 736
WIRE 0 752 0 736
WIRE -2960 784 -2960 704
WIRE -2608 784 -2608 704
WIRE -2608 784 -2960 784
WIRE -2256 784 -2256 704
WIRE -2256 784 -2608 784
WIRE -1904 784 -1904 704
WIRE -1904 784 -2256 784
WIRE -1424 784 -1424 704
WIRE -1424 784 -1904 784
WIRE -1072 784 -1072 704
WIRE -1072 784 -1424 784
WIRE -752 784 -752 704
WIRE -752 784 -1072 784
WIRE -432 784 -432 704
WIRE -432 784 -752 784
WIRE -96 784 -96 720
WIRE -96 784 -432 784
WIRE -752 912 -752 864
FLAG -1360 128 0
FLAG -1008 144 0
FLAG -32 128 0
FLAG -688 144 0
FLAG -1392 528 a1
FLAG -400 528 s1
FLAG -1040 528 b1
FLAG -64 512 s2
FLAG -720 528 c
FLAG -368 128 0
FLAG -336 736 0
FLAG 0 752 0
FLAG -656 736 0
FLAG -1328 736 0
FLAG -976 736 0
FLAG -1840 128 0
FLAG -1872 528 b2
FLAG -1808 736 0
FLAG -2192 128 0
FLAG -2224 528 a2
FLAG -2160 736 0
FLAG -2544 128 0
FLAG -2576 528 b3
FLAG -2512 736 0
FLAG -2896 128 0
FLAG -2928 528 a3
FLAG -2864 736 0
FLAG -752 912 0
SYMBOL res -768 768 R0
SYMATTR InstName R1
SYMATTR Value {R_g}
SYMBOL voltage -1360 240 R180
WINDOW 3 24 96 Invisible 2
WINDOW 123 0 0 Left 2
WINDOW 39 0 0 Left 2
SYMATTR Value PWL file=a.csv
SYMATTR InstName V1
SYMBOL voltage -368 224 R180
WINDOW 3 24 96 Invisible 2
WINDOW 123 0 0 Left 2
WINDOW 39 0 0 Left 2
SYMATTR Value PWL file=w1.csv
SYMATTR InstName V2
SYMBOL voltage -1008 256 R180
WINDOW 3 24 96 Invisible 2
WINDOW 123 0 0 Left 2
WINDOW 39 0 0 Left 2
SYMATTR Value PWL file=b.csv
SYMATTR InstName V3
SYMBOL voltage -32 240 R180
WINDOW 3 24 96 Invisible 2
WINDOW 123 0 0 Left 2
WINDOW 39 0 0 Left 2
SYMATTR Value PWL file=w2.csv
SYMATTR InstName V4
SYMBOL voltage -688 256 R180
WINDOW 3 24 96 Invisible 2
WINDOW 123 0 0 Left 2
WINDOW 39 0 0 Left 2
SYMATTR Value PWL file=c.csv
SYMATTR InstName V5
SYMBOL VTEAM_knowm -1472 480 R0
WINDOW 39 -68 63 Bottom 2
SYMATTR SpiceLine w_init=3n
SYMATTR InstName X8
SYMBOL VTEAM_knowm -1120 480 R0
WINDOW 39 -58 28 Bottom 2
SYMATTR SpiceLine w_init=3n
SYMATTR InstName X1
SYMBOL VTEAM_knowm -800 480 R0
WINDOW 39 154 98 Bottom 2
SYMATTR SpiceLine w_init=3n
SYMATTR InstName X2
SYMBOL VTEAM_knowm -480 480 R0
WINDOW 39 32 28 Bottom 2
SYMATTR SpiceLine w_init=3n
SYMATTR InstName X3
SYMBOL VTEAM_knowm -144 464 R0
WINDOW 39 32 28 Bottom 2
SYMATTR SpiceLine w_init=3n
SYMATTR InstName X4
SYMBOL sw -1424 720 R180
WINDOW 0 53 37 Left 2
SYMATTR InstName S6
SYMATTR Value MYSW
SYMBOL sw -1072 720 R180
WINDOW 0 53 40 Left 2
SYMATTR InstName S7
SYMATTR Value MYSW
SYMBOL sw -752 720 R180
WINDOW 3 35 107 Left 2
SYMATTR Value MYSW
SYMATTR InstName S8
SYMBOL sw -432 720 R180
SYMATTR InstName S9
SYMATTR Value MYSW
SYMBOL voltage -1328 624 R0
WINDOW 3 -84 142 Left 2
WINDOW 123 0 0 Left 0
WINDOW 39 0 0 Left 0
SYMATTR Value PWL file=a_sw2.csv
SYMATTR InstName V10
SYMBOL voltage -976 624 R0
WINDOW 3 -85 144 Left 2
WINDOW 123 0 0 Left 0
WINDOW 39 0 0 Left 0
SYMATTR Value PWL file=b_sw2.csv
SYMATTR InstName V12
SYMBOL voltage -656 624 R0
WINDOW 3 -81 143 Left 2
WINDOW 123 0 0 Left 0
WINDOW 39 0 0 Left 0
SYMATTR Value PWL file=c_sw2.csv
SYMATTR InstName V13
SYMBOL voltage -336 624 R0
WINDOW 3 -84 144 Left 2
WINDOW 123 0 0 Left 0
WINDOW 39 0 0 Left 0
SYMATTR Value PWL file=w1_sw2.csv
SYMATTR InstName V14
SYMBOL voltage 0 640 R0
WINDOW 3 -26 -11 Left 2
WINDOW 123 0 0 Left 0
WINDOW 39 0 0 Left 0
SYMATTR Value PWL file=w2_sw2.csv
SYMATTR InstName V15
SYMBOL sw -96 736 R180
WINDOW 0 40 52 Left 2
WINDOW 3 31 79 Left 2
SYMATTR InstName S10
SYMATTR Value MYSW
SYMBOL voltage -1840 240 R180
WINDOW 3 24 96 Invisible 2
WINDOW 123 0 0 Left 2
WINDOW 39 0 0 Left 2
SYMATTR Value PWL file=b2.csv
SYMATTR InstName V6
SYMBOL VTEAM_knowm -1952 480 R0
WINDOW 39 -68 63 Bottom 2
SYMATTR SpiceLine w_init=3n
SYMATTR InstName X5
SYMBOL sw -1904 720 R180
WINDOW 0 53 37 Left 2
SYMATTR InstName S1
SYMATTR Value MYSW
SYMBOL voltage -1808 624 R0
WINDOW 3 -84 142 Left 2
WINDOW 123 0 0 Left 0
WINDOW 39 0 0 Left 0
SYMATTR Value PWL file=b2_sw2.csv
SYMATTR InstName V7
SYMBOL voltage -2192 240 R180
WINDOW 3 24 96 Invisible 2
WINDOW 123 0 0 Left 2
WINDOW 39 0 0 Left 2
SYMATTR Value PWL file=a2.csv
SYMATTR InstName V8
SYMBOL VTEAM_knowm -2304 480 R0
WINDOW 39 -68 63 Bottom 2
SYMATTR SpiceLine w_init=3n
SYMATTR InstName X6
SYMBOL sw -2256 720 R180
WINDOW 0 53 37 Left 2
SYMATTR InstName S2
SYMATTR Value MYSW
SYMBOL voltage -2160 624 R0
WINDOW 3 -84 142 Left 2
WINDOW 123 0 0 Left 0
WINDOW 39 0 0 Left 0
SYMATTR Value PWL file=a2_sw2.csv
SYMATTR InstName V9
SYMBOL voltage -2544 240 R180
WINDOW 3 24 96 Invisible 2
WINDOW 123 0 0 Left 2
WINDOW 39 0 0 Left 2
SYMATTR Value PWL file=b3.csv
SYMATTR InstName V11
SYMBOL VTEAM_knowm -2656 480 R0
WINDOW 39 -68 63 Bottom 2
SYMATTR SpiceLine w_init=3n
SYMATTR InstName X7
SYMBOL sw -2608 720 R180
WINDOW 0 53 37 Left 2
SYMATTR InstName S3
SYMATTR Value MYSW
SYMBOL voltage -2512 624 R0
WINDOW 3 -84 142 Left 2
WINDOW 123 0 0 Left 0
WINDOW 39 0 0 Left 0
SYMATTR Value PWL file=b3_sw2.csv
SYMATTR InstName V16
SYMBOL voltage -2896 240 R180
WINDOW 3 24 96 Invisible 2
WINDOW 123 0 0 Left 2
WINDOW 39 0 0 Left 2
SYMATTR Value PWL file=a3.csv
SYMATTR InstName V17
SYMBOL VTEAM_knowm -3008 480 R0
WINDOW 39 -68 63 Bottom 2
SYMATTR SpiceLine w_init=3n
SYMATTR InstName X9
SYMBOL sw -2960 720 R180
WINDOW 0 53 37 Left 2
SYMATTR InstName S4
SYMATTR Value MYSW
SYMBOL voltage -2864 624 R0
WINDOW 3 -84 142 Left 2
WINDOW 123 0 0 Left 0
WINDOW 39 0 0 Left 0
SYMATTR Value PWL file=a3_sw2.csv
SYMATTR InstName V18
TEXT -2160 1072 Left 2 !.tran 2280u
TEXT -2160 992 Left 2 !.model MYSW SW(Ron=1n Roff=1000meg Vt=.5)
TEXT -2160 1032 Left 2 !.param R_g=40k
