Version 4
SHEET 1 5608 2376
WIRE 1168 -368 1168 -384
WIRE 1472 -368 1472 -384
WIRE -912 -320 -912 -336
WIRE -576 -320 -576 -336
WIRE 1168 -208 1168 -288
WIRE 1472 -208 1472 -288
WIRE -2128 -192 -2128 -288
WIRE -1792 -192 -1792 -256
WIRE -1488 -192 -1488 -256
WIRE -912 -192 -912 -240
WIRE -576 -192 -576 -240
WIRE -224 -192 -224 -272
WIRE 304 -192 304 -272
WIRE 832 -192 832 -304
WIRE 1136 -160 1104 -160
WIRE 1440 -160 1408 -160
WIRE -2160 -144 -2192 -144
WIRE -1824 -144 -1856 -144
WIRE -1520 -144 -1552 -144
WIRE -944 -144 -976 -144
WIRE -608 -144 -640 -144
WIRE -256 -144 -288 -144
WIRE 272 -144 240 -144
WIRE 800 -144 768 -144
WIRE -2192 -48 -2192 -80
WIRE -1856 -48 -1856 -80
WIRE -1552 -48 -1552 -80
WIRE -976 -48 -976 -80
WIRE -640 -48 -640 -80
WIRE -288 -48 -288 -80
WIRE 240 -48 240 -80
WIRE 768 -48 768 -80
WIRE -2096 -32 -2144 -32
WIRE -1760 -32 -1808 -32
WIRE -1456 -32 -1504 -32
WIRE -880 -32 -928 -32
WIRE -544 -32 -592 -32
WIRE -192 -32 -240 -32
WIRE 336 -32 288 -32
WIRE 864 -32 816 -32
WIRE 1104 -32 1104 -96
WIRE 1408 -32 1408 -96
WIRE 1200 -16 1152 -16
WIRE 1504 -16 1456 -16
WIRE -2144 48 -2144 16
WIRE -2096 48 -2144 48
WIRE -1808 48 -1808 16
WIRE -1760 48 -1808 48
WIRE -1504 48 -1504 16
WIRE -1456 48 -1504 48
WIRE -928 48 -928 16
WIRE -880 48 -928 48
WIRE -592 48 -592 16
WIRE -544 48 -592 48
WIRE -240 48 -240 16
WIRE -192 48 -240 48
WIRE 288 48 288 16
WIRE 336 48 288 48
WIRE 816 48 816 16
WIRE 864 48 816 48
WIRE -2096 64 -2096 48
WIRE -1760 64 -1760 48
WIRE -1456 64 -1456 48
WIRE -880 64 -880 48
WIRE -544 64 -544 48
WIRE -192 64 -192 48
WIRE 336 64 336 48
WIRE 864 64 864 48
WIRE 1152 64 1152 32
WIRE 1200 64 1152 64
WIRE 1456 64 1456 32
WIRE 1504 64 1456 64
WIRE 1200 80 1200 64
WIRE 1504 80 1504 64
WIRE -2192 112 -2192 32
WIRE -1856 112 -1856 32
WIRE -1856 112 -2192 112
WIRE -1552 112 -1552 32
WIRE -1552 112 -1856 112
WIRE -1296 112 -1552 112
WIRE -976 112 -976 32
WIRE -976 112 -1296 112
WIRE -640 112 -640 32
WIRE -640 112 -976 112
WIRE -288 112 -288 32
WIRE -288 112 -640 112
WIRE 240 112 240 32
WIRE 240 112 -288 112
WIRE 768 112 768 32
WIRE 768 112 240 112
WIRE 1104 112 1104 48
WIRE 1104 112 768 112
WIRE 1408 112 1408 48
WIRE 1408 112 1104 112
WIRE 1568 112 1408 112
WIRE -1296 240 -1296 192
FLAG -1296 240 0
FLAG -2160 -144 a1
FLAG 800 -144 s1
FLAG -256 -144 b3
FLAG 1136 -160 s2
FLAG 272 -144 c
FLAG 864 64 0
FLAG 1200 80 0
FLAG 336 64 0
FLAG -2096 64 0
FLAG -192 64 0
FLAG -1520 -144 a3
FLAG -608 -144 b2
FLAG -1456 64 0
FLAG -544 64 0
FLAG -2128 -368 0
FLAG -224 -352 0
FLAG 304 -352 0
FLAG 832 -384 0
FLAG 1168 -384 0
FLAG -576 -336 0
FLAG -1488 -336 0
FLAG -1824 -144 a2
FLAG -944 -144 b1
FLAG -1760 64 0
FLAG -880 64 0
FLAG -912 -336 0
FLAG -1792 -336 0
FLAG 1440 -160 s3
FLAG 1504 80 0
FLAG 1472 -384 0
SYMBOL res -1312 96 R0
SYMATTR InstName R1
SYMATTR Value {R_g}
SYMBOL voltage -2128 -272 R180
WINDOW 3 24 96 Invisible 2
WINDOW 123 0 0 Left 2
WINDOW 39 0 0 Left 2
SYMATTR Value PWL file=a.csv
SYMATTR InstName V1
SYMBOL voltage 832 -288 R180
WINDOW 3 24 96 Invisible 2
WINDOW 123 0 0 Left 2
WINDOW 39 0 0 Left 2
SYMATTR Value PWL file=w1.csv
SYMATTR InstName V2
SYMBOL voltage -224 -256 R180
WINDOW 3 24 96 Invisible 2
WINDOW 123 0 0 Left 2
WINDOW 39 0 0 Left 2
SYMATTR Value PWL file=b.csv
SYMATTR InstName V3
SYMBOL voltage 1168 -272 R180
WINDOW 3 24 96 Invisible 2
WINDOW 123 0 0 Left 2
WINDOW 39 0 0 Left 2
SYMATTR Value PWL file=w2.csv
SYMATTR InstName V4
SYMBOL voltage 304 -256 R180
WINDOW 3 24 96 Invisible 2
WINDOW 123 0 0 Left 2
WINDOW 39 0 0 Left 2
SYMATTR Value PWL file=c.csv
SYMATTR InstName V5
SYMBOL VTEAM_knowm -2240 -192 R0
WINDOW 39 -68 63 Bottom 2
SYMATTR SpiceLine w_init=3n
SYMATTR InstName X8
SYMBOL VTEAM_knowm -336 -192 R0
WINDOW 39 -58 28 Bottom 2
SYMATTR SpiceLine w_init=3n
SYMATTR InstName X1
SYMBOL VTEAM_knowm 192 -192 R0
WINDOW 39 154 98 Bottom 2
SYMATTR SpiceLine w_init=3n
SYMATTR InstName X2
SYMBOL VTEAM_knowm 720 -192 R0
WINDOW 39 32 28 Bottom 2
SYMATTR SpiceLine w_init=3n
SYMATTR InstName X3
SYMBOL VTEAM_knowm 1056 -208 R0
WINDOW 39 32 28 Bottom 2
SYMATTR SpiceLine w_init=3n
SYMATTR InstName X4
SYMBOL sw -2192 48 R180
WINDOW 0 53 37 Left 2
SYMATTR InstName S6
SYMATTR Value MYSW
SYMBOL sw -288 48 R180
WINDOW 0 53 40 Left 2
SYMATTR InstName S7
SYMATTR Value MYSW
SYMBOL sw 240 48 R180
WINDOW 3 35 107 Left 2
SYMATTR Value MYSW
SYMATTR InstName S8
SYMBOL sw 768 48 R180
SYMATTR InstName S9
SYMATTR Value MYSW
SYMBOL voltage -2096 -48 R0
WINDOW 3 -84 142 Left 2
WINDOW 123 0 0 Left 0
WINDOW 39 0 0 Left 0
SYMATTR Value PWL file=a_sw2.csv
SYMATTR InstName V10
SYMBOL voltage -192 -48 R0
WINDOW 3 -85 144 Left 2
WINDOW 123 0 0 Left 0
WINDOW 39 0 0 Left 0
SYMATTR Value PWL file=b_sw2.csv
SYMATTR InstName V12
SYMBOL voltage 336 -48 R0
WINDOW 3 -81 143 Left 2
WINDOW 123 0 0 Left 0
WINDOW 39 0 0 Left 0
SYMATTR Value PWL file=c_sw2.csv
SYMATTR InstName V13
SYMBOL voltage 864 -48 R0
WINDOW 3 -84 144 Left 2
WINDOW 123 0 0 Left 0
WINDOW 39 0 0 Left 0
SYMATTR Value PWL file=w1_sw2.csv
SYMATTR InstName V14
SYMBOL voltage 1200 -32 R0
WINDOW 3 21 134 Left 2
WINDOW 123 0 0 Left 0
WINDOW 39 0 0 Left 0
SYMATTR Value PWL file=w2_sw2.csv
SYMATTR InstName V15
SYMBOL sw 1104 64 R180
WINDOW 0 40 52 Left 2
WINDOW 3 31 79 Left 2
SYMATTR InstName S10
SYMATTR Value MYSW
SYMBOL voltage -1488 -240 R180
WINDOW 3 24 96 Invisible 2
WINDOW 123 0 0 Left 2
WINDOW 39 0 0 Left 2
SYMATTR Value PWL file=a.csv
SYMATTR InstName V6
SYMBOL voltage -576 -224 R180
WINDOW 3 24 96 Invisible 2
WINDOW 123 0 0 Left 2
WINDOW 39 0 0 Left 2
SYMATTR Value PWL file=b.csv
SYMATTR InstName V8
SYMBOL VTEAM_knowm -1600 -192 R0
WINDOW 39 -68 63 Bottom 2
SYMATTR SpiceLine w_init=3n
SYMATTR InstName X5
SYMBOL VTEAM_knowm -688 -192 R0
WINDOW 39 -58 28 Bottom 2
SYMATTR SpiceLine w_init=3n
SYMATTR InstName X6
SYMBOL sw -1552 48 R180
WINDOW 0 53 37 Left 2
SYMATTR InstName S1
SYMATTR Value MYSW
SYMBOL sw -640 48 R180
WINDOW 0 53 40 Left 2
SYMATTR InstName S2
SYMATTR Value MYSW
SYMBOL voltage -1456 -48 R0
WINDOW 3 -84 142 Left 2
WINDOW 123 0 0 Left 0
WINDOW 39 0 0 Left 0
SYMATTR Value PWL file=a_sw2.csv
SYMATTR InstName V16
SYMBOL voltage -544 -48 R0
WINDOW 3 -85 144 Left 2
WINDOW 123 0 0 Left 0
WINDOW 39 0 0 Left 0
SYMATTR Value PWL file=b_sw2.csv
SYMATTR InstName V17
SYMBOL voltage -1792 -240 R180
WINDOW 3 24 96 Invisible 2
WINDOW 123 0 0 Left 2
WINDOW 39 0 0 Left 2
SYMATTR Value PWL file=a.csv
SYMATTR InstName V11
SYMBOL voltage -912 -224 R180
WINDOW 3 24 96 Invisible 2
WINDOW 123 0 0 Left 2
WINDOW 39 0 0 Left 2
SYMATTR Value PWL file=b.csv
SYMATTR InstName V21
SYMBOL VTEAM_knowm -1904 -192 R0
WINDOW 39 -68 63 Bottom 2
SYMATTR SpiceLine w_init=3n
SYMATTR InstName X7
SYMBOL VTEAM_knowm -1024 -192 R0
WINDOW 39 -58 28 Bottom 2
SYMATTR SpiceLine w_init=3n
SYMATTR InstName X11
SYMBOL sw -1856 48 R180
WINDOW 0 53 37 Left 2
SYMATTR InstName S3
SYMATTR Value MYSW
SYMBOL sw -976 48 R180
WINDOW 0 53 40 Left 2
SYMATTR InstName S11
SYMATTR Value MYSW
SYMBOL voltage -1760 -48 R0
WINDOW 3 -84 142 Left 2
WINDOW 123 0 0 Left 0
WINDOW 39 0 0 Left 0
SYMATTR Value PWL file=a_sw2.csv
SYMATTR InstName V23
SYMBOL voltage -880 -48 R0
WINDOW 3 -85 144 Left 2
WINDOW 123 0 0 Left 0
WINDOW 39 0 0 Left 0
SYMATTR Value PWL file=b_sw2.csv
SYMATTR InstName V24
SYMBOL voltage 1472 -272 R180
WINDOW 3 24 96 Invisible 2
WINDOW 123 0 0 Left 2
WINDOW 39 0 0 Left 2
SYMATTR Value PWL file=w2.csv
SYMATTR InstName V7
SYMBOL VTEAM_knowm 1360 -208 R0
WINDOW 39 32 28 Bottom 2
SYMATTR SpiceLine w_init=3n
SYMATTR InstName X9
SYMBOL voltage 1504 -32 R0
WINDOW 3 21 134 Left 2
WINDOW 123 0 0 Left 0
WINDOW 39 0 0 Left 0
SYMATTR Value PWL file=w2_sw2.csv
SYMATTR InstName V9
SYMBOL sw 1408 64 R180
WINDOW 0 40 52 Left 2
WINDOW 3 31 79 Left 2
SYMATTR InstName S4
SYMATTR Value MYSW
TEXT -1368 1120 Left 2 !.tran 660u
TEXT -1368 1040 Left 2 !.model MYSW SW(Ron=1n Roff=1000meg Vt=.5)
TEXT -1368 1080 Left 2 !.param R_g=40k
