Version 4
SHEET 1 880 680
WIRE 144 -128 128 -128
WIRE 560 -112 528 -112
WIRE 48 -80 48 -128
WIRE 448 -64 448 -112
WIRE 16 -32 -16 -32
WIRE 416 -16 384 -16
WIRE -16 16 -16 0
WIRE 384 32 384 16
WIRE -16 80 -16 32
WIRE 384 80 384 48
WIRE 80 96 32 96
WIRE 480 96 432 96
WIRE 32 176 32 144
WIRE 80 176 32 176
WIRE 432 176 432 144
WIRE 480 176 432 176
WIRE 80 192 80 176
WIRE 480 192 480 176
WIRE -16 224 -16 160
WIRE 192 224 -16 224
WIRE 384 224 384 160
WIRE 384 224 192 224
WIRE 192 320 192 304
FLAG 144 -128 0
FLAG 560 -112 0
FLAG 192 320 0
FLAG 16 -32 A
FLAG 416 -16 B
FLAG 80 192 0
FLAG 480 192 0
SYMBOL VTEAM_knowm -64 -80 R0
WINDOW 39 124 88 Bottom 2
SYMATTR InstName X1
SYMATTR SpiceLine w_init =3n
SYMBOL VTEAM_knowm 336 -64 R0
WINDOW 39 118 88 Bottom 2
SYMATTR InstName X2
SYMATTR SpiceLine w_init =3n
SYMBOL voltage 32 -128 R270
WINDOW 0 -32 56 VBottom 2
WINDOW 3 32 56 VTop 2
WINDOW 123 0 0 Left 0
WINDOW 39 0 0 Left 0
SYMATTR InstName V1
SYMATTR Value PWL file=a_imply.csv
SYMBOL voltage 432 -112 R270
WINDOW 0 -32 56 VBottom 2
WINDOW 3 32 56 VTop 2
WINDOW 123 0 0 Left 0
WINDOW 39 0 0 Left 0
SYMATTR InstName V2
SYMATTR Value PWL file=b_imply.csv
SYMBOL res 176 208 R0
SYMATTR InstName R1
SYMATTR Value 40k
SYMBOL sw -16 176 R180
SYMATTR InstName S1
SYMATTR Value MYSW
SYMBOL sw 384 176 R180
SYMATTR InstName S2
SYMATTR Value MYSW
SYMBOL voltage 80 80 R0
WINDOW 123 0 0 Left 0
WINDOW 39 0 0 Left 0
SYMATTR InstName V3
SYMATTR Value PWL file=a_imply_swch.csv
SYMBOL voltage 480 80 R0
WINDOW 123 0 0 Left 0
WINDOW 39 0 0 Left 0
SYMATTR InstName V4
SYMATTR Value PWL file=b_imply_swch.csv
TEXT 32 344 Left 2 !.tran 300u
TEXT 32 376 Left 2 !.model MYSW SW(Ron=1n Roff=1000meg Vt=.5)
