Version 4
SHEET 1 880 680
WIRE -96 16 -448 16
WIRE 224 16 96 16
WIRE -448 80 -448 16
WIRE -96 80 -96 16
WIRE 96 80 96 16
WIRE 224 112 224 16
WIRE -128 128 -160 128
WIRE 64 128 32 128
WIRE -208 240 -320 240
WIRE 192 256 80 256
WIRE -320 272 -320 240
WIRE -160 272 -160 192
WIRE 32 272 32 192
WIRE 192 272 192 256
WIRE -208 288 -208 240
WIRE 80 288 80 256
WIRE -320 384 -320 352
WIRE -208 384 -208 336
WIRE -208 384 -320 384
WIRE -160 384 -160 352
WIRE -48 384 -160 384
WIRE 32 384 32 352
WIRE 32 384 -48 384
WIRE 80 384 80 336
WIRE 192 384 192 352
WIRE 192 384 80 384
FLAG 224 192 0
FLAG -448 160 0
FLAG -320 384 0
FLAG 192 384 0
FLAG -48 464 0
FLAG -128 128 A
FLAG 64 128 B
SYMBOL VTEAM_knowm -16 80 R0
SYMATTR InstName X1
SYMBOL VTEAM_knowm -208 80 R0
SYMATTR InstName X2
SYMBOL voltage 224 96 R0
WINDOW 123 0 0 Left 0
WINDOW 39 0 0 Left 0
SYMATTR InstName V1
SYMATTR Value PWL file=b_imply.csv
SYMBOL voltage -448 64 M0
WINDOW 123 0 0 Left 0
WINDOW 39 0 0 Left 0
SYMATTR InstName V2
SYMATTR Value PWL file=a_imply.csv
SYMBOL sw 32 368 R180
SYMATTR InstName S1
SYMATTR Value MYSW
SYMBOL sw -160 368 M180
SYMATTR InstName S2
SYMATTR Value MYSW
SYMBOL voltage 192 256 R0
WINDOW 123 0 0 Left 0
WINDOW 39 0 0 Left 0
SYMATTR InstName V3
SYMATTR Value PWL file=b_imply_swch.csv
SYMBOL voltage -320 256 M0
WINDOW 123 0 0 Left 0
WINDOW 39 0 0 Left 0
SYMATTR InstName V4
SYMATTR Value PWL file=a_imply_swch.csv
SYMBOL res -32 368 M0
SYMATTR InstName R1
SYMATTR Value 40k
TEXT -724 488 Left 2 !.tran 300u
TEXT -720 456 Left 2 !.model MYSW SW(Ron=1n Roff=1000meg Vt=.5)
