Version 4
SHEET 1 2036 936
WIRE 0 208 -176 208
WIRE 208 208 0 208
WIRE 512 208 400 208
WIRE 608 208 512 208
WIRE 208 288 208 208
WIRE 400 288 400 208
WIRE 608 304 608 208
WIRE 176 336 144 336
WIRE 368 336 336 336
WIRE -176 368 -176 208
WIRE -176 384 -176 368
WIRE -176 464 -176 448
WIRE 480 512 384 512
WIRE 512 512 480 512
WIRE 48 528 -16 528
WIRE 96 528 48 528
WIRE -16 544 -16 528
WIRE 144 544 144 400
WIRE 336 544 336 400
WIRE 512 544 512 512
WIRE 96 560 96 528
WIRE 384 560 384 512
WIRE 384 624 384 608
WIRE 448 624 384 624
WIRE 512 624 448 624
WIRE -16 656 -16 624
WIRE 48 656 -16 656
WIRE 96 656 96 608
WIRE 96 656 48 656
WIRE 144 672 144 624
WIRE 240 672 144 672
WIRE 336 672 336 624
WIRE 336 672 240 672
FLAG 240 752 0
FLAG -176 464 0
FLAG 608 384 0
FLAG 176 336 A
FLAG 368 336 B
FLAG 48 656 0
FLAG 448 624 0
FLAG 0 208 v1
FLAG 512 208 v2
FLAG 480 512 v3
FLAG 48 528 v4
SYMBOL VTEAM_knowm 96 288 R0
SYMATTR InstName X1
SYMBOL VTEAM_knowm 288 288 R0
SYMATTR InstName X2
SYMBOL voltage 608 288 R0
WINDOW 3 66 60 Left 2
WINDOW 123 0 0 Left 0
WINDOW 39 0 0 Left 0
SYMATTR InstName V1
SYMATTR Value PWL file="D:\Master\Emerging_Computing\epcExercise\ex04\Exercise 4\Imply Logic\Imply Logic\b_imply.csv"
SYMBOL voltage -176 352 R0
WINDOW 3 -9 -185 Left 2
WINDOW 123 0 0 Left 0
WINDOW 39 0 0 Left 0
SYMATTR InstName V2
SYMATTR Value PWL file="D:\Master\Emerging_Computing\epcExercise\ex04\Exercise 4\Imply Logic\Imply Logic\a_imply.csv"
SYMBOL sw 336 640 R180
WINDOW 3 -88 -14 Left 2
SYMATTR InstName S1
SYMATTR Value MYSW
SYMBOL sw 144 640 M180
WINDOW 3 17 112 Left 2
SYMATTR InstName S2
SYMATTR Value MYSW
SYMBOL voltage 512 528 R0
WINDOW 3 -16 131 Left 2
WINDOW 123 0 0 Left 0
WINDOW 39 0 0 Left 0
SYMATTR InstName V3
SYMATTR Value PWL file="D:\Master\Emerging_Computing\epcExercise\ex04\Exercise 4\Imply Logic\Imply Logic\b_imply_swch.csv"
SYMBOL voltage -16 528 R0
WINDOW 3 -122 272 Left 2
WINDOW 123 0 0 Left 0
WINDOW 39 0 0 Left 0
SYMATTR InstName V4
SYMATTR Value PWL file="D:\Master\Emerging_Computing\epcExercise\ex04\Exercise 4\Imply Logic\Imply Logic\a_imply_swch.csv"
SYMBOL res 224 656 R0
SYMATTR InstName R1
SYMATTR Value 40k
TEXT -168 864 Left 2 !.model MYSW SW(Ron=1n Roff=1000meg Vt=.5)
TEXT -168 920 Left 2 !.tran 300u
